FoamFile
{
    version     2.0;
    format      ascii;
    class       dictionary;
    object      controlDict;
}
application     simpleFoam;
startFrom       latestTime;
startTime       0;
stopAt          endTime;
endTime         1000;
deltaT          1;
writeControl    runTime;
writeInterval   1000;
purgeWrite      1;
writeFormat     binary;
writePrecision  6;
writeCompression off;
timeFormat      general;
timePrecision   6;
runTimeModifiable true;

functions
{
    // yPlus is supported in OpenFOAM 13
    yPlus1
    {
        type            yPlus;
        libs            ("libfieldFunctionObjects.so"); // Try generic lib, if fails it's often autoloaded
        executeControl  writeTime;
        writeControl    writeTime;
    }
}
