FoamFile
{
    version     2.0;
    format      ascii;
    class       dictionary;
    object      fvSolution;
}
solvers
{
    p
    {
        solver          GAMG;
        tolerance       1e-6;
        relTol          0.1;
        smoother        GaussSeidel;
    }
    "(U|k|epsilon|omega)"
    {
        solver          smoothSolver;
        smoother        symGaussSeidel;
        tolerance       1e-6;
        relTol          0.1;
    }
}
SIMPLE
{
    nNonOrthogonalCorrectors 0;
    consistent      yes;
    pRefCell        0;
    pRefValue       0;
    residualControl
    {
        p               1e-4;
        U               1e-4;
        "(k|epsilon|omega)" 1e-4;
    }
}
relaxationFactors
{
    equations
    {
        U               0.9;
        k               0.7;
        epsilon         0.7;
    }
}
