FoamFile { version 2.0; format ascii; class volScalarField; object epsilon; }
dimensions [0 2 -3 0 0 0 0]; internalField uniform 0.03063462394928023;
boundaryField { inlet { type fixedValue; value uniform 0.03063462394928023; } outlet { type zeroGradient; } walls { type epsilonWallFunction; value uniform 0.03063462394928023; } frontAndBack { type empty; } }
